#632
1
LOCAL
LUSER
#numModules
10
# Module DomainSurface
DomainSurface
1
LOCAL
Filter
TITLE=DomainSurface_1
22
99
2
GridIn0
StructuredGrid|RectilinearGrid|UniformGrid|UnstructuredGrid
grid
req

DataIn0
Float|Vec3|Mat3
data on grid points
opt

4
GridOut0
Polygons
surface of structured grid
default

DataOut0
Float|Vec3|Mat3
data on surface
dep DataIn0

GridOut1
Lines
feature lines 
default

DataOut1
Float|Vec3|Mat3
data on feature lines
dep DataIn0

4
angle
FloatScalar
feature angle
0.1

-1
vertex
FloatVector
normal for back-face culling
1.0 0.0 0.0

-1
scalar
FloatScalar
threshold for back-face culling
1.5

-1
double
Boolean
check for duplicated vertices
TRUE

-1
0
# Module Renderer
Renderer
1
LOCAL
Renderer
TITLE=Renderer_1
22
319
1
RenderData
Geometry|Points|Text_Iv|UnstructuredGrid|RectilinearGrid|StructuredGrid|Polygons|TriangleStrips|Lines
render geometry or Inventor file
req

0
1
AnnotationString
String
Annotation descr. string
empty

-1
0
# Module ReadDyna3D
ReadDyna3D
1
LOCAL
IO_Module
TITLE=ReadDyna3D_1
22
22
0
3
out_grid
UnstructuredGrid
grid
default

data_1
Vec3
output nodal vector data
default

data_2
Float
output nodal scalar data
default

10
data_path
Browser
Geometry file path
share/covise/example-data/Dyna3d/aplot

1
nodalDataType
Choice
Nodal results data to be read
1 None Displacements Velocities Accelerations

1
elementDataType
Choice
Element results data to be read
1 None StressTensor PlasticStrain Thickness

1
component
Choice
stress tensor component
8 Sx Sy Sz Txy Tyz Txz Pressure VonMises

-1
Selection
String
Number selection for parts
0-9999999

-1
Min_Num_State
IntVector
Time step
10 10

1
format
Choice
Format of LS-DYNA3D ptf-File
1 cadfem original

-1
byteswap
Choice
Perform Byteswapping
3 off on auto

-1
OnlyGeometry
Boolean
Reading only Geometry? yes|no
FALSE

-1
data_path___filter
BrowserFilter
Geometry file path
data_path *

-1
0
# Module DomainSurface
DomainSurface
2
LOCAL
Filter
TITLE=DomainSurface_2
176
154
2
GridIn0
StructuredGrid|RectilinearGrid|UniformGrid|UnstructuredGrid
grid
req

DataIn0
Float|Vec3|Mat3
data on grid points
opt

4
GridOut0
Polygons
surface of structured grid
default

DataOut0
Float|Vec3|Mat3
data on surface
dep DataIn0

GridOut1
Lines
feature lines 
default

DataOut1
Float|Vec3|Mat3
data on feature lines
dep DataIn0

4
angle
FloatScalar
feature angle
0.1

-1
vertex
FloatVector
normal for back-face culling
1.0 0.0 0.0

-1
scalar
FloatScalar
threshold for back-face culling
1.5

-1
double
Boolean
check for duplicated vertices
TRUE

-1
0
# Module Renderer
Renderer
2
LOCAL
Renderer
TITLE=Renderer_2
176
363
1
RenderData
Geometry|Points|Text_Iv|UnstructuredGrid|RectilinearGrid|StructuredGrid|Polygons|TriangleStrips|Lines
render geometry or Inventor file
req

0
1
AnnotationString
String
Annotation descr. string
empty

-1
0
# Module PartSelect
PartSelect
1
LOCAL
Filter
TITLE=PartSelect_1
176
88
4
inport_1
StructuredGrid|Float|Vec3|UnstructuredGrid|Float|Vec3|Geometry|Polygons|Lines|Points|TriangleStrips|IntArr
input object
req

inport_2
StructuredGrid|Float|Vec3|UnstructuredGrid|Float|Vec3|Geometry|Polygons|Lines|Points|TriangleStrips|IntArr
input object
opt

inport_3
StructuredGrid|Float|Vec3|UnstructuredGrid|Float|Vec3|Geometry|Polygons|Lines|Points|TriangleStrips|IntArr
input object
opt

inport_4
StructuredGrid|Float|Vec3|UnstructuredGrid|Float|Vec3|Geometry|Polygons|Lines|Points|TriangleStrips|IntArr
input object
opt

4
outport_1
StructuredGrid|Float|Vec3|UnstructuredGrid|Float|Vec3|Geometry|Polygons|Lines|Points|TriangleStrips|IntArr
output object
default

outport_2
StructuredGrid|Float|Vec3|UnstructuredGrid|Float|Vec3|Geometry|Polygons|Lines|Points|TriangleStrips|IntArr
output object
dep inport_2

outport_3
StructuredGrid|Float|Vec3|UnstructuredGrid|Float|Vec3|Geometry|Polygons|Lines|Points|TriangleStrips|IntArr
output object
dep inport_3

outport_4
StructuredGrid|Float|Vec3|UnstructuredGrid|Float|Vec3|Geometry|Polygons|Lines|Points|TriangleStrips|IntArr
output object
dep inport_4

1
numbers
String
numbers of selected parts
3/8

-1
0
# Module GenNormals
GenNormals
1
LOCAL
Tools
TITLE=GenNormals_1
220
220
1
GridIn0
Polygons|Lines
Grid, polygonal or linear input
req

1
DataOut0
Vec3
Normals
default

1
LineNormalStyle
Choice
Which Normal Style For Lines
1 BisectLargeAngle BisectSmallAngle Orthogonal 

-1
0
# Module Collect
Collect
1
LOCAL
Tools
TITLE=Collect_2
176
297
5
GridIn0
StructuredGrid|UnstructuredGrid|RectilinearGrid|UniformGrid|Points|Spheres|Lines|Polygons|Quads|Triangles|TriangleStrips
Grid
req

DataIn0
Byte|Float|Vec3|RGBA
Colors or Scalar Data for Volume Visualization
opt

DataIn1
Vec3
Normals
opt

TextureIn0
Texture
Textures
opt

VertexAttribIn0
Vec3|Float
Vertex Attribute 0
opt

1
GeometryOut0
Geometry
combined object
default

3
varName
String
name of variant


-1
minBound
FloatVector
minimum bound
0 0 0

-1
maxBound
FloatVector
maximum bound
0 0 0

-1
0
# Module GenNormals
GenNormals
2
LOCAL
Tools
TITLE=GenNormals_2
44
176
1
GridIn0
Polygons|Lines
Grid, polygonal or linear input
req

1
DataOut0
Vec3
Normals
default

1
LineNormalStyle
Choice
Which Normal Style For Lines
1 BisectLargeAngle BisectSmallAngle Orthogonal 

-1
0
# Module Collect
Collect
2
LOCAL
Tools
TITLE=Collect_3
22
242
5
GridIn0
StructuredGrid|UnstructuredGrid|RectilinearGrid|UniformGrid|Points|Spheres|Lines|Polygons|Quads|Triangles|TriangleStrips
Grid
req

DataIn0
Byte|Float|Vec3|RGBA
Colors or Scalar Data for Volume Visualization
opt

DataIn1
Vec3
Normals
opt

TextureIn0
Texture
Textures
opt

VertexAttribIn0
Vec3|Float
Vertex Attribute 0
opt

1
GeometryOut0
Geometry
combined object
default

3
varName
String
name of variant


-1
minBound
FloatVector
minimum bound
0 0 0

-1
maxBound
FloatVector
maximum bound
0 0 0

-1
0
11
DomainSurface
1
LOCAL
GridOut0

GenNormals
2
LOCAL
GridIn0
DomainSurface
1
LOCAL
GridOut0

Collect
2
LOCAL
GridIn0
ReadDyna3D
1
LOCAL
out_grid

DomainSurface
1
LOCAL
GridIn0
ReadDyna3D
1
LOCAL
out_grid

PartSelect
1
LOCAL
inport_1
DomainSurface
2
LOCAL
GridOut0

GenNormals
1
LOCAL
GridIn0
DomainSurface
2
LOCAL
GridOut0

Collect
1
LOCAL
GridIn0
PartSelect
1
LOCAL
outport_1

DomainSurface
2
LOCAL
GridIn0
GenNormals
1
LOCAL
DataOut0

Collect
1
LOCAL
DataIn1
Collect
1
LOCAL
GeometryOut0

Renderer
2
LOCAL
RenderData
GenNormals
2
LOCAL
DataOut0

Collect
2
LOCAL
DataIn1
Collect
2
LOCAL
GeometryOut0

Renderer
1
LOCAL
RenderData
0
