**
**
**
** file created by  A N S A  Wed May 13 21:31:50 2015
**
** output from :
**
** /home/hpcralf/programme/covise/src/module/hlrs/ReadABAQUSfil/testdata/Beam.inp
** 
**
*HEADING

**
**
**
**
**
**
*NODE
       1,                       5.,                       5.,                     200.
       2,        4.999999999999997,                       0.,                     200.
       3,    8.540177112501214E-18,                       5.,                     200.
       4,                       5.,                      10.,                     200.
       5,                      10.,        4.999999999999997,                     200.
       6,        4.999999999999999,        4.999999999999998,                       0.
       7,        4.999999999999997,                       0.,                       0.
       8,    8.540177112501214E-18,                       5.,                       0.
       9,                       5.,                      10.,                       0.
      10,                      10.,        4.999999999999997,                       0.
      11,    3.284683504808176E-19,    8.881784197001252E-16,                      10.
      12,    3.284683504808177E-19,    8.881784197001252E-16,       20.000000000000007
      13,   3.2846835048081766E-19,    8.881784197001252E-16,                      30.
      14,   3.2846835048081766E-19,    8.881784197001252E-16,                      40.
      15,   3.2846835048081766E-19,    8.881784197001252E-16,                      50.
      16,    3.284683504808176E-19,    8.881784197001252E-16,                      60.
      17,   3.2846835048081766E-19,    8.881784197001252E-16,                     200.
      18,   3.2846835048081766E-19,    8.881784197001252E-16,                      70.
      19,    3.284683504808177E-19,    8.881784197001252E-16,                      80.
      20,   3.2846835048081766E-19,    8.881784197001252E-16,                      90.
** ... 169 like lines cut
**
** SOLID ELEMENTS
**
*ELEMENT, TYPE=C3D8, ELSET=P3;Beam_Solid
     169,       53,        7,        6,        8,       11,       95,      171,      152
     170,        7,       64,       10,        6,       95,       33,      114,      171
     171,        8,        6,        9,       63,      152,      171,      133,       76
     172,        6,       10,       72,        9,      171,      114,       54,      133
     173,       11,       95,      171,      152,       12,       96,      172,      153
     174,       95,       33,      114,      171,       96,       34,      115,      172
     175,      152,      171,      133,       76,      153,      172,      134,       77
     176,      171,      114,       54,      133,      172,      115,       55,      134
     177,       12,       96,      172,      153,       13,       97,      173,      154
     178,       96,       34,      115,      172,       97,       35,      116,      173
     179,      153,      172,      134,       77,      154,      173,      135,       78
     180,      172,      115,       55,      134,      173,      116,       56,      135
     181,       13,       97,      173,      154,       14,       98,      174,      155
     182,       97,       35,      116,      173,       98,       37,      117,      174
     183,      154,      173,      135,       78,      155,      174,      136,       79
     184,      173,      116,       56,      135,      174,      117,       57,      136
     185,       14,       98,      174,      155,       15,       99,      175,      156
     186,       98,       37,      117,      174,       99,       38,      118,      175
     187,      155,      174,      136,       79,      156,      175,      137,       80
     188,      174,      117,       57,      136,      175,      118,       58,      137
** ... 60 like lines cut
**
** 
**
**
** 
**
**
** SECTION DATA
**
*SOLID SECTION, ELSET=P3;Beam_Solid, MATERIAL=M3;Default MATERIAL
**
** MATERIALS
**
**
**M3;Default MATERIAL
**
*MATERIAL, NAME=M3;Default MATERIAL
*DENSITY
                 7.85E-9,
*ELASTIC, TYPE=ISOTROPIC
                  21000.,                      0.3
**
** 
**
** 
** SETS
** 
*ELSET, ELSET=Part1
     169, 170, 171, 172, 173, 174, 175, 176, 177, 178, 179, 180
**
*NSET, NSET=Set_Load
       1,        2,        3,        4,        5,       17,       26,       29,       36
**
** STEPS
**
**
** STEP 1
**
*STEP, NAME=STEP 1, NLGEOM=YES
*STATIC
                     0.1,                       1.
**
** CLOAD
**
*CLOAD
Set_Load,        2,                     -10.
**
** BOUNDARY
**
*BOUNDARY, TYPE=DISPLACEMENT
       6,        1,        3,                       0.
       7,        1,        3,                       0.
       8,        1,        3,                       0.
       9,        1,        3,                       0.
      10,        1,        3,                       0.
      53,        1,        3,                       0.
      63,        1,        3,                       0.
      64,        1,        3,                       0.
      72,        1,        3,                       0.
*NODE FILE, FREQUENCY=1, GLOBAL=YES
RF,
U,
*EL FILE, FREQUENCY=1, POSITION=CENTROIDAL
E,
S,
*END STEP
**
** STEP 1
**
*STEP, NAME=STEP 2, NLGEOM=YES
*STATIC
                     0.1,                       1.
**
** CLOAD
**
*CLOAD
Set_Load,        1,                     -10.
**
** BOUNDARY
**
*BOUNDARY, TYPE=DISPLACEMENT
       6,        1,        3,                       0.
       7,        1,        3,                       0.
       8,        1,        3,                       0.
       9,        1,        3,                       0.
      10,        1,        3,                       0.
      53,        1,        3,                       0.
      63,        1,        3,                       0.
      64,        1,        3,                       0.
      72,        1,        3,                       0.
*NODE FILE, FREQUENCY=1, GLOBAL=YES
RF,
U,
*EL FILE, FREQUENCY=1, POSITION=CENTROIDAL
E,
S,
*END STEP
